*----------------------------------------------------------------------
* SPICE Model generated by Murata Manufacturing Co., Ltd.
* Copyright(C) Murata Manufacturing Co., Ltd.
* MURATA P/N : LQW18ANR33G00
* Property : L = 330[nH]
*----------------------------------------------------------------------
* Applicable Conditions:
*   Frequency Range = 50MHz - 20GHz
*   Temperature = 25 degC
*   DC Bias Current = 0 A
*   Small Signal Operation
*----------------------------------------------------------------------
.SUBCKT LQW18ANR33G00 port1 port2
C1 port1 port2 1.54e-14
L2 port1 1 3.71e-7
R2 1 port2 3.93
R3 port1 port2 1.77e+5
L4 port1 2 4.91e-6
R4 2 port2 140
L5 port1 3 1.60e-5
R5 3 port2 5.92e+3
L6 port1 4 3.86e-5
R6 4 port2 7.94e+4
L7 port1 5 1.01e-4
C7 5 6 6.56e-17
R7 6 port2 2.23e+5
L8 port1 7 5.19e-7
C8 7 8 5.22e-15
R8 8 port2 251
L9 port1 9 2.36e-5
C9 9 10 6.86e-17
R9 10 port2 8.29e+4
L10 port1 11 2.29e-7
C10 11 12 3.62e-15
R10 12 port2 251
L11 port1 13 1.33e-7
C11 13 14 2.92e-15
R11 14 port2 335
L12 port1 15 1.09e-7
C12 15 16 2.02e-15
R12 16 port2 371
L13 port1 17 1.54e-7
C13 17 18 9.13e-16
R13 18 port2 246
L14 port1 19 4.85e-8
C14 19 20 2.09e-15
R14 20 port2 212
L15 port1 21 1.97e-8
C15 21 22 3.60e-15
R15 22 port2 144
.ENDS LQW18ANR33G00
*----------------------------------------------------------------------
