*----------------------------------------------------------------------
* SPICE Model generated by Murata Manufacturing Co., Ltd.
* Copyright(C) Murata Manufacturing Co., Ltd.
* MURATA P/N : LQW18AN43NG00
* Property : L = 43[nH]
*----------------------------------------------------------------------
* Applicable Conditions:
*   Frequency Range = 50MHz - 20GHz
*   Temperature = 25 degC
*   DC Bias Current = 0 A
*   Small Signal Operation
*----------------------------------------------------------------------
.SUBCKT LQW18AN43NG00 port1 port2
C1 port1 port2 1.11e-14
L2 port1 1 4.86e-8
R2 1 port2 2.40e-1
R3 port1 port2 9.54e+4
L4 port1 2 4.97e-7
R4 2 port2 24.4
L5 port1 3 1.38e-6
R5 3 port2 888
L6 port1 4 2.79e-6
R6 4 port2 1.87e+4
L7 port1 5 3.23e-5
C7 5 6 2.50e-17
R7 6 port2 1.31e+5
L8 port1 7 7.13e-8
C8 7 8 3.96e-15
R8 8 port2 41.6
L9 port1 9 2.15e-8
C9 9 10 5.69e-15
R9 10 port2 842
L10 port1 11 1.38e-8
C10 11 12 5.98e-15
R10 12 port2 38.4
.ENDS LQW18AN43NG00
*----------------------------------------------------------------------
