*----------------------------------------------------------------------
* SPICE Model generated by Murata Manufacturing Co., Ltd.
* Copyright(C) Murata Manufacturing Co., Ltd.
* MURATA P/N : LQW18ANR27G00
* Property : L = 270[nH]
*----------------------------------------------------------------------
* Applicable Conditions:
*   Frequency Range = 50MHz - 20GHz
*   Temperature = 25 degC
*   DC Bias Current = 0 A
*   Small Signal Operation
*----------------------------------------------------------------------
.SUBCKT LQW18ANR27G00 port1 port2
C1 port1 port2 3.07e-15
L2 port1 1 2.92e-7
R2 1 port2 2.43
R3 port1 port2 2.00e+5
L4 port1 2 5.05e-6
R4 2 port2 135
L5 port1 3 1.08e-5
R5 3 port2 5.30e+3
L6 port1 4 2.80e-5
R6 4 port2 8.36e+4
L7 port1 5 4.23e-4
C7 5 6 1.71e-17
R7 6 port2 3.83e+5
L8 port1 7 4.50e-7
C8 7 8 4.93e-15
R8 8 port2 301
L9 port1 9 8.93e-6
C9 9 10 1.25e-16
R9 10 port2 3.45e+4
L10 port1 11 1.62e-7
C10 11 12 4.15e-15
R10 12 port2 277
L11 port1 13 1.11e-7
C11 13 14 2.82e-15
R11 14 port2 575
L12 port1 15 5.10e-8
C12 15 16 3.51e-15
R12 16 port2 354
L13 port1 17 1.50e-8
C13 17 18 7.27e-15
R13 18 port2 222
L14 port1 19 1.62e-8
C14 19 20 4.48e-15
R14 20 port2 163
.ENDS LQW18ANR27G00
*----------------------------------------------------------------------
