*----------------------------------------------------------------------
* SPICE Model generated by Murata Manufacturing Co., Ltd.
* Copyright(C) Murata Manufacturing Co., Ltd.
* MURATA P/N : LQW18AN22NG00
* Property : L = 22[nH]
*----------------------------------------------------------------------
* Applicable Conditions:
*   Frequency Range = 50MHz - 20GHz
*   Temperature = 25 degC
*   DC Bias Current = 0 A
*   Small Signal Operation
*----------------------------------------------------------------------
.SUBCKT LQW18AN22NG00 port1 port2
C1 port1 port2 2.56e-14
L2 port1 1 2.46e-8
R2 1 port2 1.20e-1
R3 port1 port2 3.60e+4
L4 port1 2 2.17e-7
R4 2 port2 10.9
L5 port1 3 6.21e-7
R5 3 port2 387
L6 port1 4 1.37e-6
R6 4 port2 9.39e+3
L7 port1 5 1.62e-7
C7 5 6 2.55e-15
R7 6 port2 92.0
L8 port1 7 3.72e-8
C8 7 8 3.12e-15
R8 8 port2 51.4
L9 port1 9 1.07e-7
C9 9 10 7.31e-16
R9 10 port2 307
.ENDS LQW18AN22NG00
*----------------------------------------------------------------------
